/*---------------------------------------------------------------------------*\
| =========                 |                                                 |
| \\      /  F ield         | OpenFOAM: The Open Source CFD Toolbox           |
|  \\    /   O peration     | Version:  2306                                  |
|   \\  /    A nd           | Website:  www.openfoam.com                      |
|    \\/     M anipulation  |                                                 |
\*---------------------------------------------------------------------------*/
Build  : _fbf00d6b-20230626 OPENFOAM=2306 version=2306
Arch   : "LSB;label=32;scalar=64"
Exec   : rhoPimpleFoam -postProcess -func wallShearStress
Date   : Feb 06 2024
Time   : 13:19:30
Host   : 04e45866e330
PID    : 374
I/O    : uncollated
Case   : /OpenFOAM/RP3/GridDependency/FarField50Chord/gd_250x100_Re6E6_AoA3
nProcs : 1
trapFpe: Floating point exception trapping enabled (FOAM_SIGFPE).
fileModificationChecking : Monitoring run-time modified files using timeStampMaster (fileModificationSkew 5, maxFileModificationPolls 20)
allowSystemOperations : Allowing user-supplied system call operations

// * * * * * * * * * * * * * * * * * * * * * * * * * * * * * * * * * * * * * //
Create time

Create mesh for time = 0


PIMPLE: Operating solver in PISO mode

wallShearStress wallShearStress:
    processing all wall patches

Time = 0
Using LTS
Reading thermophysical properties

Selecting thermodynamics package 
{
    type            hePsiThermo;
    mixture         pureMixture;
    transport       const;
    thermo          hConst;
    equationOfState perfectGas;
    specie          specie;
    energy          sensibleInternalEnergy;
}

Reading field U

Reading/calculating face flux field phi

pressureControl
    pMax 49000
    pMin 2450

Creating turbulence model

Selecting turbulence model type RAS
Selecting RAS turbulence model SpalartAllmaras
Selecting patchDistMethod meshWave
ft2 term: inactive
RAS
{
    RASModel        SpalartAllmaras;
    turbulence      on;
    printCoeffs     on;
    sigmaNut        0.66666;
    kappa           0.41;
    Cb1             0.1355;
    Cb2             0.622;
    Cw2             0.3;
    Cw3             2;
    Cv1             7.1;
    Cs              0.3;
    ck              0.07;
    ft2             false;
    Ct3             1.2;
    Ct4             0.5;
}

Creating field dpdt

Creating field kinetic energy K

No MRF models present

Creating finite volume options from "system/fvOptions"

Selecting finite volume options type limitTemperature
    Source: limitT
    - selecting all cells
    - selected 25000 cell(s) with volume 889.64235
wallShearStress wallShearStress write:
    writing field wallShearStress
    min/max(upperSurface) = (-9.1080037 -5.5040007e-19 -0.80704184), (-6.8532685 3.5383011e-19 0.80164746)
    min/max(lowerSurface) = (-9.1208168 -6.9742625e-19 -1.7654234), (-6.8523188 6.5623697e-19 -0.15454238)

Time = 0.01
Using LTS
Reading thermophysical properties

Selecting thermodynamics package 
{
    type            hePsiThermo;
    mixture         pureMixture;
    transport       const;
    thermo          hConst;
    equationOfState perfectGas;
    specie          specie;
    energy          sensibleInternalEnergy;
}

Reading field U

Reading/calculating face flux field phi

pressureControl
    pMax 49000
    pMin 2449.9956

Creating turbulence model

Selecting turbulence model type RAS
Selecting RAS turbulence model SpalartAllmaras
ft2 term: inactive
RAS
{
    RASModel        SpalartAllmaras;
    turbulence      on;
    printCoeffs     on;
    sigmaNut        0.66666;
    kappa           0.41;
    Cb1             0.1355;
    Cb2             0.622;
    Cw2             0.3;
    Cw3             2;
    Cv1             7.1;
    Cs              0.3;
    ck              0.07;
    ft2             false;
    Ct3             1.2;
    Ct4             0.5;
}

Creating field dpdt

Creating field kinetic energy K

No MRF models present

wallShearStress wallShearStress write:
    writing field wallShearStress
    min/max(upperSurface) = (-50.478745 -1.8578881e-16 -41.948381), (-2.2489435 1.8605054e-16 1.7162608)
    min/max(lowerSurface) = (-45.414411 -2.0843967e-16 -2.85303), (-0.89202782 2.03535e-16 25.75035)

Time = 0.02
Using LTS
Reading thermophysical properties

Selecting thermodynamics package 
{
    type            hePsiThermo;
    mixture         pureMixture;
    transport       const;
    thermo          hConst;
    equationOfState perfectGas;
    specie          specie;
    energy          sensibleInternalEnergy;
}

Reading field U

Reading/calculating face flux field phi

pressureControl
    pMax 49009.808
    pMin 2449.5297

Creating turbulence model

Selecting turbulence model type RAS
Selecting RAS turbulence model SpalartAllmaras
ft2 term: inactive
RAS
{
    RASModel        SpalartAllmaras;
    turbulence      on;
    printCoeffs     on;
    sigmaNut        0.66666;
    kappa           0.41;
    Cb1             0.1355;
    Cb2             0.622;
    Cw2             0.3;
    Cw3             2;
    Cv1             7.1;
    Cs              0.3;
    ck              0.07;
    ft2             false;
    Ct3             1.2;
    Ct4             0.5;
}

Creating field dpdt

Creating field kinetic energy K

No MRF models present

wallShearStress wallShearStress write:
    writing field wallShearStress
    min/max(upperSurface) = (-51.480898 -1.8451714e-16 -44.841025), (-0.5724794 1.8465904e-16 1.458385)
    min/max(lowerSurface) = (-43.821603 -2.0935944e-16 -4.8756679), (-0.77204341 2.0423417e-16 23.754259)

Time = 0.03
Using LTS
Reading thermophysical properties

Selecting thermodynamics package 
{
    type            hePsiThermo;
    mixture         pureMixture;
    transport       const;
    thermo          hConst;
    equationOfState perfectGas;
    specie          specie;
    energy          sensibleInternalEnergy;
}

Reading field U

Reading/calculating face flux field phi

pressureControl
    pMax 49020.2
    pMin 2448.9059

Creating turbulence model

Selecting turbulence model type RAS
Selecting RAS turbulence model SpalartAllmaras
ft2 term: inactive
RAS
{
    RASModel        SpalartAllmaras;
    turbulence      on;
    printCoeffs     on;
    sigmaNut        0.66666;
    kappa           0.41;
    Cb1             0.1355;
    Cb2             0.622;
    Cw2             0.3;
    Cw3             2;
    Cv1             7.1;
    Cs              0.3;
    ck              0.07;
    ft2             false;
    Ct3             1.2;
    Ct4             0.5;
}

Creating field dpdt

Creating field kinetic energy K

No MRF models present

wallShearStress wallShearStress write:
    writing field wallShearStress
    min/max(upperSurface) = (-51.762484 -1.8283248e-16 -46.590102), (-0.62143518 1.8227576e-16 1.4148858)
    min/max(lowerSurface) = (-43.067517 -2.0992305e-16 -6.3825297), (-0.76610124 2.0480308e-16 22.48504)

Time = 0.04
Using LTS
Reading thermophysical properties

Selecting thermodynamics package 
{
    type            hePsiThermo;
    mixture         pureMixture;
    transport       const;
    thermo          hConst;
    equationOfState perfectGas;
    specie          specie;
    energy          sensibleInternalEnergy;
}

Reading field U

Reading/calculating face flux field phi

pressureControl
    pMax 49042.044
    pMin 2448.1621

Creating turbulence model

Selecting turbulence model type RAS
Selecting RAS turbulence model SpalartAllmaras
ft2 term: inactive
RAS
{
    RASModel        SpalartAllmaras;
    turbulence      on;
    printCoeffs     on;
    sigmaNut        0.66666;
    kappa           0.41;
    Cb1             0.1355;
    Cb2             0.622;
    Cw2             0.3;
    Cw3             2;
    Cv1             7.1;
    Cs              0.3;
    ck              0.07;
    ft2             false;
    Ct3             1.2;
    Ct4             0.5;
}

Creating field dpdt

Creating field kinetic energy K

No MRF models present

wallShearStress wallShearStress write:
    writing field wallShearStress
    min/max(upperSurface) = (-51.818988 -1.8038333e-16 -47.259855), (-0.37873872 1.7985916e-16 1.3128255)
    min/max(lowerSurface) = (-42.697271 -2.1030768e-16 -7.1563553), (-0.78916019 2.052092e-16 21.961525)

Time = 0.05
Using LTS
Reading thermophysical properties

Selecting thermodynamics package 
{
    type            hePsiThermo;
    mixture         pureMixture;
    transport       const;
    thermo          hConst;
    equationOfState perfectGas;
    specie          specie;
    energy          sensibleInternalEnergy;
}

Reading field U

Reading/calculating face flux field phi

pressureControl
    pMax 49054.978
    pMin 2447.6847

Creating turbulence model

Selecting turbulence model type RAS
Selecting RAS turbulence model SpalartAllmaras
ft2 term: inactive
RAS
{
    RASModel        SpalartAllmaras;
    turbulence      on;
    printCoeffs     on;
    sigmaNut        0.66666;
    kappa           0.41;
    Cb1             0.1355;
    Cb2             0.622;
    Cw2             0.3;
    Cw3             2;
    Cv1             7.1;
    Cs              0.3;
    ck              0.07;
    ft2             false;
    Ct3             1.2;
    Ct4             0.5;
}

Creating field dpdt

Creating field kinetic energy K

No MRF models present

wallShearStress wallShearStress write:
    writing field wallShearStress
    min/max(upperSurface) = (-51.814853 -1.7599327e-16 -47.674766), (-0.096009683 1.74967e-16 1.2539987)
    min/max(lowerSurface) = (-42.480027 -2.1172962e-16 -7.659815), (-0.81543819 2.0537461e-16 21.64255)

Time = 0.06
Using LTS
Reading thermophysical properties

Selecting thermodynamics package 
{
    type            hePsiThermo;
    mixture         pureMixture;
    transport       const;
    thermo          hConst;
    equationOfState perfectGas;
    specie          specie;
    energy          sensibleInternalEnergy;
}

Reading field U

Reading/calculating face flux field phi

pressureControl
    pMax 49062.236
    pMin 2447.4011

Creating turbulence model

Selecting turbulence model type RAS
Selecting RAS turbulence model SpalartAllmaras
ft2 term: inactive
RAS
{
    RASModel        SpalartAllmaras;
    turbulence      on;
    printCoeffs     on;
    sigmaNut        0.66666;
    kappa           0.41;
    Cb1             0.1355;
    Cb2             0.622;
    Cw2             0.3;
    Cw3             2;
    Cv1             7.1;
    Cs              0.3;
    ck              0.07;
    ft2             false;
    Ct3             1.2;
    Ct4             0.5;
}

Creating field dpdt

Creating field kinetic energy K

No MRF models present

wallShearStress wallShearStress write:
    writing field wallShearStress
    min/max(upperSurface) = (-51.826051 -1.7296599e-16 -47.957836), (0.082128361 1.7146304e-16 1.2571693)
    min/max(lowerSurface) = (-42.362068 -2.1166521e-16 -8.0085306), (-0.8301943 2.0538412e-16 21.435888)

Time = 0.07
Using LTS
Reading thermophysical properties

Selecting thermodynamics package 
{
    type            hePsiThermo;
    mixture         pureMixture;
    transport       const;
    thermo          hConst;
    equationOfState perfectGas;
    specie          specie;
    energy          sensibleInternalEnergy;
}

Reading field U

Reading/calculating face flux field phi

pressureControl
    pMax 49066.16
    pMin 2447.2064

Creating turbulence model

Selecting turbulence model type RAS
Selecting RAS turbulence model SpalartAllmaras
ft2 term: inactive
RAS
{
    RASModel        SpalartAllmaras;
    turbulence      on;
    printCoeffs     on;
    sigmaNut        0.66666;
    kappa           0.41;
    Cb1             0.1355;
    Cb2             0.622;
    Cw2             0.3;
    Cw3             2;
    Cv1             7.1;
    Cs              0.3;
    ck              0.07;
    ft2             false;
    Ct3             1.2;
    Ct4             0.5;
}

Creating field dpdt

Creating field kinetic energy K

No MRF models present

wallShearStress wallShearStress write:
    writing field wallShearStress
    min/max(upperSurface) = (-51.838034 -1.7023348e-16 -48.133877), (0.18194087 1.6873405e-16 1.2470654)
    min/max(lowerSurface) = (-42.29706 -2.1164489e-16 -8.2159875), (-0.83857191 2.0541498e-16 21.325394)

Time = 0.08
Using LTS
Reading thermophysical properties

Selecting thermodynamics package 
{
    type            hePsiThermo;
    mixture         pureMixture;
    transport       const;
    thermo          hConst;
    equationOfState perfectGas;
    specie          specie;
    energy          sensibleInternalEnergy;
}

Reading field U

Reading/calculating face flux field phi

pressureControl
    pMax 49069.508
    pMin 2447.0582

Creating turbulence model

Selecting turbulence model type RAS
Selecting RAS turbulence model SpalartAllmaras
ft2 term: inactive
RAS
{
    RASModel        SpalartAllmaras;
    turbulence      on;
    printCoeffs     on;
    sigmaNut        0.66666;
    kappa           0.41;
    Cb1             0.1355;
    Cb2             0.622;
    Cw2             0.3;
    Cw3             2;
    Cv1             7.1;
    Cs              0.3;
    ck              0.07;
    ft2             false;
    Ct3             1.2;
    Ct4             0.5;
}

Creating field dpdt

Creating field kinetic energy K

No MRF models present

wallShearStress wallShearStress write:
    writing field wallShearStress
    min/max(upperSurface) = (-51.853046 -1.7006011e-16 -48.256306), (0.22892621 1.687849e-16 1.2368651)
    min/max(lowerSurface) = (-42.235297 -2.1164985e-16 -8.377463), (-0.83927682 2.0547544e-16 21.240009)

Time = 0.09
Using LTS
Reading thermophysical properties

Selecting thermodynamics package 
{
    type            hePsiThermo;
    mixture         pureMixture;
    transport       const;
    thermo          hConst;
    equationOfState perfectGas;
    specie          specie;
    energy          sensibleInternalEnergy;
}

Reading field U

Reading/calculating face flux field phi

pressureControl
    pMax 49072.184
    pMin 2446.9499

Creating turbulence model

Selecting turbulence model type RAS
Selecting RAS turbulence model SpalartAllmaras
ft2 term: inactive
RAS
{
    RASModel        SpalartAllmaras;
    turbulence      on;
    printCoeffs     on;
    sigmaNut        0.66666;
    kappa           0.41;
    Cb1             0.1355;
    Cb2             0.622;
    Cw2             0.3;
    Cw3             2;
    Cv1             7.1;
    Cs              0.3;
    ck              0.07;
    ft2             false;
    Ct3             1.2;
    Ct4             0.5;
}

Creating field dpdt

Creating field kinetic energy K

No MRF models present

wallShearStress wallShearStress write:
    writing field wallShearStress
    min/max(upperSurface) = (-51.836354 -1.6863131e-16 -48.35026), (0.27654089 1.6722724e-16 1.2643638)
    min/max(lowerSurface) = (-42.232374 -2.1162e-16 -8.4804599), (-0.82699886 2.0543724e-16 21.188761)

Time = 0.1
Using LTS
Reading thermophysical properties

Selecting thermodynamics package 
{
    type            hePsiThermo;
    mixture         pureMixture;
    transport       const;
    thermo          hConst;
    equationOfState perfectGas;
    specie          specie;
    energy          sensibleInternalEnergy;
}

Reading field U

Reading/calculating face flux field phi

pressureControl
    pMax 49074.368
    pMin 2446.8267

Creating turbulence model

Selecting turbulence model type RAS
Selecting RAS turbulence model SpalartAllmaras
ft2 term: inactive
RAS
{
    RASModel        SpalartAllmaras;
    turbulence      on;
    printCoeffs     on;
    sigmaNut        0.66666;
    kappa           0.41;
    Cb1             0.1355;
    Cb2             0.622;
    Cw2             0.3;
    Cw3             2;
    Cv1             7.1;
    Cs              0.3;
    ck              0.07;
    ft2             false;
    Ct3             1.2;
    Ct4             0.5;
}

Creating field dpdt

Creating field kinetic energy K

No MRF models present

wallShearStress wallShearStress write:
    writing field wallShearStress
    min/max(upperSurface) = (-51.851001 -1.6727268e-16 -48.405209), (0.36093327 1.6558084e-16 1.2461679)
    min/max(lowerSurface) = (-42.198416 -2.1158241e-16 -8.5524825), (-0.81817887 2.0542954e-16 21.153391)

Time = 0.11
Using LTS
Reading thermophysical properties

Selecting thermodynamics package 
{
    type            hePsiThermo;
    mixture         pureMixture;
    transport       const;
    thermo          hConst;
    equationOfState perfectGas;
    specie          specie;
    energy          sensibleInternalEnergy;
}

Reading field U

Reading/calculating face flux field phi

pressureControl
    pMax 49077.666
    pMin 2446.7017

Creating turbulence model

Selecting turbulence model type RAS
Selecting RAS turbulence model SpalartAllmaras
ft2 term: inactive
RAS
{
    RASModel        SpalartAllmaras;
    turbulence      on;
    printCoeffs     on;
    sigmaNut        0.66666;
    kappa           0.41;
    Cb1             0.1355;
    Cb2             0.622;
    Cw2             0.3;
    Cw3             2;
    Cv1             7.1;
    Cs              0.3;
    ck              0.07;
    ft2             false;
    Ct3             1.2;
    Ct4             0.5;
}

Creating field dpdt

Creating field kinetic energy K

No MRF models present

wallShearStress wallShearStress write:
    writing field wallShearStress
    min/max(upperSurface) = (-51.822433 -1.6695917e-16 -48.460425), (0.39202936 1.6543941e-16 1.2371193)
    min/max(lowerSurface) = (-42.164952 -2.1157111e-16 -8.652488), (-0.80529516 2.0542664e-16 21.087417)

Time = 0.12
Using LTS
Reading thermophysical properties

Selecting thermodynamics package 
{
    type            hePsiThermo;
    mixture         pureMixture;
    transport       const;
    thermo          hConst;
    equationOfState perfectGas;
    specie          specie;
    energy          sensibleInternalEnergy;
}

Reading field U

Reading/calculating face flux field phi

pressureControl
    pMax 49081.632
    pMin 2446.5923

Creating turbulence model

Selecting turbulence model type RAS
Selecting RAS turbulence model SpalartAllmaras
ft2 term: inactive
RAS
{
    RASModel        SpalartAllmaras;
    turbulence      on;
    printCoeffs     on;
    sigmaNut        0.66666;
    kappa           0.41;
    Cb1             0.1355;
    Cb2             0.622;
    Cw2             0.3;
    Cw3             2;
    Cv1             7.1;
    Cs              0.3;
    ck              0.07;
    ft2             false;
    Ct3             1.2;
    Ct4             0.5;
}

Creating field dpdt

Creating field kinetic energy K

No MRF models present

wallShearStress wallShearStress write:
    writing field wallShearStress
    min/max(upperSurface) = (-51.844824 -1.6751735e-16 -48.504815), (0.4603596 1.6611475e-16 1.2352848)
    min/max(lowerSurface) = (-42.14458 -2.1163271e-16 -8.6885689), (-0.80154172 2.0549966e-16 21.074013)

Time = 0.13
Using LTS
Reading thermophysical properties

Selecting thermodynamics package 
{
    type            hePsiThermo;
    mixture         pureMixture;
    transport       const;
    thermo          hConst;
    equationOfState perfectGas;
    specie          specie;
    energy          sensibleInternalEnergy;
}

Reading field U

Reading/calculating face flux field phi

pressureControl
    pMax 49096.614
    pMin 2446.489

Creating turbulence model

Selecting turbulence model type RAS
Selecting RAS turbulence model SpalartAllmaras
ft2 term: inactive
RAS
{
    RASModel        SpalartAllmaras;
    turbulence      on;
    printCoeffs     on;
    sigmaNut        0.66666;
    kappa           0.41;
    Cb1             0.1355;
    Cb2             0.622;
    Cw2             0.3;
    Cw3             2;
    Cv1             7.1;
    Cs              0.3;
    ck              0.07;
    ft2             false;
    Ct3             1.2;
    Ct4             0.5;
}

Creating field dpdt

Creating field kinetic energy K

No MRF models present

wallShearStress wallShearStress write:
    writing field wallShearStress
    min/max(upperSurface) = (-51.881409 -1.6316159e-16 -48.481548), (0.46390186 1.6081881e-16 1.2227415)
    min/max(lowerSurface) = (-42.165788 -2.114422e-16 -8.6313584), (-0.80907104 2.0532714e-16 21.1156)

Time = 0.14
Using LTS
Reading thermophysical properties

Selecting thermodynamics package 
{
    type            hePsiThermo;
    mixture         pureMixture;
    transport       const;
    thermo          hConst;
    equationOfState perfectGas;
    specie          specie;
    energy          sensibleInternalEnergy;
}

Reading field U

Reading/calculating face flux field phi

pressureControl
    pMax 49092.906
    pMin 2442.8345

Creating turbulence model

Selecting turbulence model type RAS
Selecting RAS turbulence model SpalartAllmaras
ft2 term: inactive
RAS
{
    RASModel        SpalartAllmaras;
    turbulence      on;
    printCoeffs     on;
    sigmaNut        0.66666;
    kappa           0.41;
    Cb1             0.1355;
    Cb2             0.622;
    Cw2             0.3;
    Cw3             2;
    Cv1             7.1;
    Cs              0.3;
    ck              0.07;
    ft2             false;
    Ct3             1.2;
    Ct4             0.5;
}

Creating field dpdt

Creating field kinetic energy K

No MRF models present

wallShearStress wallShearStress write:
    writing field wallShearStress
    min/max(upperSurface) = (-51.888073 -1.6575834e-16 -48.480581), (0.49080006 1.6435561e-16 1.233801)
    min/max(lowerSurface) = (-42.210607 -2.114904e-16 -8.6134732), (-0.81191533 2.0534453e-16 21.139049)

Time = 0.15
Using LTS
Reading thermophysical properties

Selecting thermodynamics package 
{
    type            hePsiThermo;
    mixture         pureMixture;
    transport       const;
    thermo          hConst;
    equationOfState perfectGas;
    specie          specie;
    energy          sensibleInternalEnergy;
}

Reading field U

Reading/calculating face flux field phi

pressureControl
    pMax 49121.814
    pMin 2447.0165

Creating turbulence model

Selecting turbulence model type RAS
Selecting RAS turbulence model SpalartAllmaras
ft2 term: inactive
RAS
{
    RASModel        SpalartAllmaras;
    turbulence      on;
    printCoeffs     on;
    sigmaNut        0.66666;
    kappa           0.41;
    Cb1             0.1355;
    Cb2             0.622;
    Cw2             0.3;
    Cw3             2;
    Cv1             7.1;
    Cs              0.3;
    ck              0.07;
    ft2             false;
    Ct3             1.2;
    Ct4             0.5;
}

Creating field dpdt

Creating field kinetic energy K

No MRF models present

wallShearStress wallShearStress write:
    writing field wallShearStress
    min/max(upperSurface) = (-51.885471 -1.649437e-16 -48.472887), (0.45479477 1.6361219e-16 1.2600785)
    min/max(lowerSurface) = (-42.231805 -2.1132398e-16 -8.5927268), (-0.81489295 2.0517126e-16 21.158207)

Time = 0.16
Using LTS
Reading thermophysical properties

Selecting thermodynamics package 
{
    type            hePsiThermo;
    mixture         pureMixture;
    transport       const;
    thermo          hConst;
    equationOfState perfectGas;
    specie          specie;
    energy          sensibleInternalEnergy;
}

Reading field U

Reading/calculating face flux field phi

pressureControl
    pMax 49137.648
    pMin 2446.838

Creating turbulence model

Selecting turbulence model type RAS
Selecting RAS turbulence model SpalartAllmaras
ft2 term: inactive
RAS
{
    RASModel        SpalartAllmaras;
    turbulence      on;
    printCoeffs     on;
    sigmaNut        0.66666;
    kappa           0.41;
    Cb1             0.1355;
    Cb2             0.622;
    Cw2             0.3;
    Cw3             2;
    Cv1             7.1;
    Cs              0.3;
    ck              0.07;
    ft2             false;
    Ct3             1.2;
    Ct4             0.5;
}

Creating field dpdt

Creating field kinetic energy K

No MRF models present

wallShearStress wallShearStress write:
    writing field wallShearStress
    min/max(upperSurface) = (-51.852504 -1.6529552e-16 -48.467022), (0.49946712 1.6425452e-16 1.257532)
    min/max(lowerSurface) = (-42.214759 -2.1148064e-16 -8.6149737), (-0.81158357 2.0532905e-16 21.137121)

Time = 0.17
Using LTS
Reading thermophysical properties

Selecting thermodynamics package 
{
    type            hePsiThermo;
    mixture         pureMixture;
    transport       const;
    thermo          hConst;
    equationOfState perfectGas;
    specie          specie;
    energy          sensibleInternalEnergy;
}

Reading field U

Reading/calculating face flux field phi

pressureControl
    pMax 49126.956
    pMin 2446.874

Creating turbulence model

Selecting turbulence model type RAS
Selecting RAS turbulence model SpalartAllmaras
ft2 term: inactive
RAS
{
    RASModel        SpalartAllmaras;
    turbulence      on;
    printCoeffs     on;
    sigmaNut        0.66666;
    kappa           0.41;
    Cb1             0.1355;
    Cb2             0.622;
    Cw2             0.3;
    Cw3             2;
    Cv1             7.1;
    Cs              0.3;
    ck              0.07;
    ft2             false;
    Ct3             1.2;
    Ct4             0.5;
}

Creating field dpdt

Creating field kinetic energy K

No MRF models present

wallShearStress wallShearStress write:
    writing field wallShearStress
    min/max(upperSurface) = (-51.876475 -1.6384466e-16 -48.542468), (0.51892453 1.627004e-16 1.2377751)
    min/max(lowerSurface) = (-42.195348 -2.114459e-16 -8.6925463), (-0.80272155 2.0531314e-16 21.099816)

Time = 0.18
Using LTS
Reading thermophysical properties

Selecting thermodynamics package 
{
    type            hePsiThermo;
    mixture         pureMixture;
    transport       const;
    thermo          hConst;
    equationOfState perfectGas;
    specie          specie;
    energy          sensibleInternalEnergy;
}

Reading field U

Reading/calculating face flux field phi

pressureControl
    pMax 49143.204
    pMin 2446.8881

Creating turbulence model

Selecting turbulence model type RAS
Selecting RAS turbulence model SpalartAllmaras
ft2 term: inactive
RAS
{
    RASModel        SpalartAllmaras;
    turbulence      on;
    printCoeffs     on;
    sigmaNut        0.66666;
    kappa           0.41;
    Cb1             0.1355;
    Cb2             0.622;
    Cw2             0.3;
    Cw3             2;
    Cv1             7.1;
    Cs              0.3;
    ck              0.07;
    ft2             false;
    Ct3             1.2;
    Ct4             0.5;
}

Creating field dpdt

Creating field kinetic energy K

No MRF models present

wallShearStress wallShearStress write:
    writing field wallShearStress
    min/max(upperSurface) = (-51.861179 -1.6355396e-16 -48.558919), (0.52125718 1.6157463e-16 1.2398253)
    min/max(lowerSurface) = (-42.192625 -2.114102e-16 -8.7231503), (-0.79896718 2.0528797e-16 21.080907)

Time = 0.19
Using LTS
Reading thermophysical properties

Selecting thermodynamics package 
{
    type            hePsiThermo;
    mixture         pureMixture;
    transport       const;
    thermo          hConst;
    equationOfState perfectGas;
    specie          specie;
    energy          sensibleInternalEnergy;
}

Reading field U

Reading/calculating face flux field phi

pressureControl
    pMax 49093.88
    pMin 2446.9298

Creating turbulence model

Selecting turbulence model type RAS
Selecting RAS turbulence model SpalartAllmaras
ft2 term: inactive
RAS
{
    RASModel        SpalartAllmaras;
    turbulence      on;
    printCoeffs     on;
    sigmaNut        0.66666;
    kappa           0.41;
    Cb1             0.1355;
    Cb2             0.622;
    Cw2             0.3;
    Cw3             2;
    Cv1             7.1;
    Cs              0.3;
    ck              0.07;
    ft2             false;
    Ct3             1.2;
    Ct4             0.5;
}

Creating field dpdt

Creating field kinetic energy K

No MRF models present

wallShearStress wallShearStress write:
    writing field wallShearStress
    min/max(upperSurface) = (-51.861098 -1.5945423e-16 -48.594315), (0.60583003 1.5664948e-16 1.2250121)
    min/max(lowerSurface) = (-42.197632 -2.1126576e-16 -8.7589706), (-0.79514167 2.0517553e-16 21.066755)

Time = 0.2
Using LTS
Reading thermophysical properties

Selecting thermodynamics package 
{
    type            hePsiThermo;
    mixture         pureMixture;
    transport       const;
    thermo          hConst;
    equationOfState perfectGas;
    specie          specie;
    energy          sensibleInternalEnergy;
}

Reading field U

Reading/calculating face flux field phi

pressureControl
    pMax 49126.138
    pMin 2446.985

Creating turbulence model

Selecting turbulence model type RAS
Selecting RAS turbulence model SpalartAllmaras
ft2 term: inactive
RAS
{
    RASModel        SpalartAllmaras;
    turbulence      on;
    printCoeffs     on;
    sigmaNut        0.66666;
    kappa           0.41;
    Cb1             0.1355;
    Cb2             0.622;
    Cw2             0.3;
    Cw3             2;
    Cv1             7.1;
    Cs              0.3;
    ck              0.07;
    ft2             false;
    Ct3             1.2;
    Ct4             0.5;
}

Creating field dpdt

Creating field kinetic energy K

No MRF models present

wallShearStress wallShearStress write:
    writing field wallShearStress
    min/max(upperSurface) = (-51.882855 -1.5864385e-16 -48.571059), (0.59663183 1.5427991e-16 1.2199427)
    min/max(lowerSurface) = (-42.221402 -2.1106521e-16 -8.7210046), (-0.79991846 2.0495416e-16 21.095579)

Time = 0.21
Using LTS
Reading thermophysical properties

Selecting thermodynamics package 
{
    type            hePsiThermo;
    mixture         pureMixture;
    transport       const;
    thermo          hConst;
    equationOfState perfectGas;
    specie          specie;
    energy          sensibleInternalEnergy;
}

Reading field U

Reading/calculating face flux field phi

pressureControl
    pMax 49093.63
    pMin 2447.0451

Creating turbulence model

Selecting turbulence model type RAS
Selecting RAS turbulence model SpalartAllmaras
ft2 term: inactive
RAS
{
    RASModel        SpalartAllmaras;
    turbulence      on;
    printCoeffs     on;
    sigmaNut        0.66666;
    kappa           0.41;
    Cb1             0.1355;
    Cb2             0.622;
    Cw2             0.3;
    Cw3             2;
    Cv1             7.1;
    Cs              0.3;
    ck              0.07;
    ft2             false;
    Ct3             1.2;
    Ct4             0.5;
}

Creating field dpdt

Creating field kinetic energy K

No MRF models present

wallShearStress wallShearStress write:
    writing field wallShearStress
    min/max(upperSurface) = (-51.879274 -1.6432468e-16 -48.535084), (0.52559651 1.6317144e-16 1.2324621)
    min/max(lowerSurface) = (-42.222439 -2.1133765e-16 -8.6803926), (-0.80449077 2.05212e-16 21.114416)

Time = 0.22
Using LTS
Reading thermophysical properties

Selecting thermodynamics package 
{
    type            hePsiThermo;
    mixture         pureMixture;
    transport       const;
    thermo          hConst;
    equationOfState perfectGas;
    specie          specie;
    energy          sensibleInternalEnergy;
}

Reading field U

Reading/calculating face flux field phi

pressureControl
    pMax 49108.826
    pMin 2447.1111

Creating turbulence model

Selecting turbulence model type RAS
Selecting RAS turbulence model SpalartAllmaras
ft2 term: inactive
RAS
{
    RASModel        SpalartAllmaras;
    turbulence      on;
    printCoeffs     on;
    sigmaNut        0.66666;
    kappa           0.41;
    Cb1             0.1355;
    Cb2             0.622;
    Cw2             0.3;
    Cw3             2;
    Cv1             7.1;
    Cs              0.3;
    ck              0.07;
    ft2             false;
    Ct3             1.2;
    Ct4             0.5;
}

Creating field dpdt

Creating field kinetic energy K

No MRF models present

wallShearStress wallShearStress write:
    writing field wallShearStress
    min/max(upperSurface) = (-51.875327 -1.6915447e-16 -48.562568), (0.46251091 1.6866009e-16 1.2755381)
    min/max(lowerSurface) = (-42.199856 -2.1156302e-16 -8.7194997), (-0.79974429 2.0543653e-16 21.089029)

Time = 0.23
Using LTS
Reading thermophysical properties

Selecting thermodynamics package 
{
    type            hePsiThermo;
    mixture         pureMixture;
    transport       const;
    thermo          hConst;
    equationOfState perfectGas;
    specie          specie;
    energy          sensibleInternalEnergy;
}

Reading field U

Reading/calculating face flux field phi

pressureControl
    pMax 49062.288
    pMin 2447.1864

Creating turbulence model

Selecting turbulence model type RAS
Selecting RAS turbulence model SpalartAllmaras
ft2 term: inactive
RAS
{
    RASModel        SpalartAllmaras;
    turbulence      on;
    printCoeffs     on;
    sigmaNut        0.66666;
    kappa           0.41;
    Cb1             0.1355;
    Cb2             0.622;
    Cw2             0.3;
    Cw3             2;
    Cv1             7.1;
    Cs              0.3;
    ck              0.07;
    ft2             false;
    Ct3             1.2;
    Ct4             0.5;
}

Creating field dpdt

Creating field kinetic energy K

No MRF models present

wallShearStress wallShearStress write:
    writing field wallShearStress
    min/max(upperSurface) = (-51.871739 -1.6816889e-16 -48.587726), (0.54260633 1.6782429e-16 1.3043662)
    min/max(lowerSurface) = (-42.17116 -2.1159833e-16 -8.7552133), (-0.79536241 2.054779e-16 21.064237)

Time = 0.24
Using LTS
Reading thermophysical properties

Selecting thermodynamics package 
{
    type            hePsiThermo;
    mixture         pureMixture;
    transport       const;
    thermo          hConst;
    equationOfState perfectGas;
    specie          specie;
    energy          sensibleInternalEnergy;
}

Reading field U

Reading/calculating face flux field phi

pressureControl
    pMax 49100.486
    pMin 2447.2569

Creating turbulence model

Selecting turbulence model type RAS
Selecting RAS turbulence model SpalartAllmaras
ft2 term: inactive
RAS
{
    RASModel        SpalartAllmaras;
    turbulence      on;
    printCoeffs     on;
    sigmaNut        0.66666;
    kappa           0.41;
    Cb1             0.1355;
    Cb2             0.622;
    Cw2             0.3;
    Cw3             2;
    Cv1             7.1;
    Cs              0.3;
    ck              0.07;
    ft2             false;
    Ct3             1.2;
    Ct4             0.5;
}

Creating field dpdt

Creating field kinetic energy K

No MRF models present

wallShearStress wallShearStress write:
    writing field wallShearStress
    min/max(upperSurface) = (-51.856274 -1.6464816e-16 -48.624913), (0.64159695 1.63937e-16 1.2988052)
    min/max(lowerSurface) = (-42.162681 -2.1158114e-16 -8.8085935), (-0.78917486 2.0547691e-16 21.03327)

Time = 0.25
Using LTS
Reading thermophysical properties

Selecting thermodynamics package 
{
    type            hePsiThermo;
    mixture         pureMixture;
    transport       const;
    thermo          hConst;
    equationOfState perfectGas;
    specie          specie;
    energy          sensibleInternalEnergy;
}

Reading field U

Reading/calculating face flux field phi

pressureControl
    pMax 49086.37
    pMin 2447.3453

Creating turbulence model

Selecting turbulence model type RAS
Selecting RAS turbulence model SpalartAllmaras
ft2 term: inactive
RAS
{
    RASModel        SpalartAllmaras;
    turbulence      on;
    printCoeffs     on;
    sigmaNut        0.66666;
    kappa           0.41;
    Cb1             0.1355;
    Cb2             0.622;
    Cw2             0.3;
    Cw3             2;
    Cv1             7.1;
    Cs              0.3;
    ck              0.07;
    ft2             false;
    Ct3             1.2;
    Ct4             0.5;
}

Creating field dpdt

Creating field kinetic energy K

No MRF models present

wallShearStress wallShearStress write:
    writing field wallShearStress
    min/max(upperSurface) = (-51.86896 -1.6097207e-16 -48.659934), (0.63269516 1.598919e-16 1.2657172)
    min/max(lowerSurface) = (-42.176806 -2.1148427e-16 -8.8345218), (-0.78686268 2.0536811e-16 21.028992)

End

