/*---------------------------------------------------------------------------*\
| =========                 |                                                 |
| \\      /  F ield         | OpenFOAM: The Open Source CFD Toolbox           |
|  \\    /   O peration     | Version:  2306                                  |
|   \\  /    A nd           | Website:  www.openfoam.com                      |
|    \\/     M anipulation  |                                                 |
\*---------------------------------------------------------------------------*/
Build  : _fbf00d6b-20230626 OPENFOAM=2306 version=2306
Arch   : "LSB;label=32;scalar=64"
Exec   : rhoPimpleFoam -postProcess -func wallShearStress
Date   : Feb 06 2024
Time   : 14:46:45
Host   : 04e45866e330
PID    : 529
I/O    : uncollated
Case   : /OpenFOAM/RP3/GridDependency/FarField50Chord/gd_500x200_Re6E6_AoA3
nProcs : 1
trapFpe: Floating point exception trapping enabled (FOAM_SIGFPE).
fileModificationChecking : Monitoring run-time modified files using timeStampMaster (fileModificationSkew 5, maxFileModificationPolls 20)
allowSystemOperations : Allowing user-supplied system call operations

// * * * * * * * * * * * * * * * * * * * * * * * * * * * * * * * * * * * * * //
Create time

Create mesh for time = 0


PIMPLE: Operating solver in PISO mode

wallShearStress wallShearStress:
    processing all wall patches

Time = 0
Using LTS
Reading thermophysical properties

Selecting thermodynamics package 
{
    type            hePsiThermo;
    mixture         pureMixture;
    transport       const;
    thermo          hConst;
    equationOfState perfectGas;
    specie          specie;
    energy          sensibleInternalEnergy;
}

Reading field U

Reading/calculating face flux field phi

pressureControl
    pMax 49000
    pMin 2450

Creating turbulence model

Selecting turbulence model type RAS
Selecting RAS turbulence model SpalartAllmaras
Selecting patchDistMethod meshWave
ft2 term: inactive
RAS
{
    RASModel        SpalartAllmaras;
    turbulence      on;
    printCoeffs     on;
    sigmaNut        0.66666;
    kappa           0.41;
    Cb1             0.1355;
    Cb2             0.622;
    Cw2             0.3;
    Cw3             2;
    Cv1             7.1;
    Cs              0.3;
    ck              0.07;
    ft2             false;
    Ct3             1.2;
    Ct4             0.5;
}

Creating field dpdt

Creating field kinetic energy K

No MRF models present

Creating finite volume options from "system/fvOptions"

Selecting finite volume options type limitTemperature
    Source: limitT
    - selecting all cells
    - selected 100000 cell(s) with volume 889.67884
wallShearStress wallShearStress write:
    writing field wallShearStress
    min/max(upperSurface) = (-17.667174 -7.671379e-19 -1.5613261), (-13.241963 7.9487624e-19 1.5554235)
    min/max(lowerSurface) = (-17.679614 -8.9391955e-19 -3.42341), (-13.240406 8.6786179e-19 -0.29674514)

Time = 0.01
Using LTS
Reading thermophysical properties

Selecting thermodynamics package 
{
    type            hePsiThermo;
    mixture         pureMixture;
    transport       const;
    thermo          hConst;
    equationOfState perfectGas;
    specie          specie;
    energy          sensibleInternalEnergy;
}

Reading field U

Reading/calculating face flux field phi

pressureControl
    pMax 49000
    pMin 2449.9995

Creating turbulence model

Selecting turbulence model type RAS
Selecting RAS turbulence model SpalartAllmaras
ft2 term: inactive
RAS
{
    RASModel        SpalartAllmaras;
    turbulence      on;
    printCoeffs     on;
    sigmaNut        0.66666;
    kappa           0.41;
    Cb1             0.1355;
    Cb2             0.622;
    Cw2             0.3;
    Cw3             2;
    Cv1             7.1;
    Cs              0.3;
    ck              0.07;
    ft2             false;
    Ct3             1.2;
    Ct4             0.5;
}

Creating field dpdt

Creating field kinetic energy K

No MRF models present

wallShearStress wallShearStress write:
    writing field wallShearStress
    min/max(upperSurface) = (-52.841377 -1.1343854e-16 -44.931113), (-1.0826713 1.1479933e-16 2.3230362)
    min/max(lowerSurface) = (-46.075928 -1.2386926e-16 -4.1584297), (-0.56180777 1.1942677e-16 27.933452)

Time = 0.02
Using LTS
Reading thermophysical properties

Selecting thermodynamics package 
{
    type            hePsiThermo;
    mixture         pureMixture;
    transport       const;
    thermo          hConst;
    equationOfState perfectGas;
    specie          specie;
    energy          sensibleInternalEnergy;
}

Reading field U

Reading/calculating face flux field phi

pressureControl
    pMax 49044.03
    pMin 2449.1974

Creating turbulence model

Selecting turbulence model type RAS
Selecting RAS turbulence model SpalartAllmaras
ft2 term: inactive
RAS
{
    RASModel        SpalartAllmaras;
    turbulence      on;
    printCoeffs     on;
    sigmaNut        0.66666;
    kappa           0.41;
    Cb1             0.1355;
    Cb2             0.622;
    Cw2             0.3;
    Cw3             2;
    Cv1             7.1;
    Cs              0.3;
    ck              0.07;
    ft2             false;
    Ct3             1.2;
    Ct4             0.5;
}

Creating field dpdt

Creating field kinetic energy K

No MRF models present

wallShearStress wallShearStress write:
    writing field wallShearStress
    min/max(upperSurface) = (-55.681502 -1.1616155e-16 -47.881053), (-1.1221963 1.1744587e-16 1.7288119)
    min/max(lowerSurface) = (-47.944203 -1.2590086e-16 -5.5489848), (-0.54114143 1.2234116e-16 27.980115)

Time = 0.03
Using LTS
Reading thermophysical properties

Selecting thermodynamics package 
{
    type            hePsiThermo;
    mixture         pureMixture;
    transport       const;
    thermo          hConst;
    equationOfState perfectGas;
    specie          specie;
    energy          sensibleInternalEnergy;
}

Reading field U

Reading/calculating face flux field phi

pressureControl
    pMax 49029
    pMin 2449.2096

Creating turbulence model

Selecting turbulence model type RAS
Selecting RAS turbulence model SpalartAllmaras
ft2 term: inactive
RAS
{
    RASModel        SpalartAllmaras;
    turbulence      on;
    printCoeffs     on;
    sigmaNut        0.66666;
    kappa           0.41;
    Cb1             0.1355;
    Cb2             0.622;
    Cw2             0.3;
    Cw3             2;
    Cv1             7.1;
    Cs              0.3;
    ck              0.07;
    ft2             false;
    Ct3             1.2;
    Ct4             0.5;
}

Creating field dpdt

Creating field kinetic energy K

No MRF models present

wallShearStress wallShearStress write:
    writing field wallShearStress
    min/max(upperSurface) = (-56.483293 -1.1793876e-16 -49.178651), (-0.84477102 1.1925073e-16 1.6403852)
    min/max(lowerSurface) = (-47.289024 -1.2558088e-16 -6.5198756), (-0.54220981 1.2203863e-16 27.368489)

Time = 0.04
Using LTS
Reading thermophysical properties

Selecting thermodynamics package 
{
    type            hePsiThermo;
    mixture         pureMixture;
    transport       const;
    thermo          hConst;
    equationOfState perfectGas;
    specie          specie;
    energy          sensibleInternalEnergy;
}

Reading field U

Reading/calculating face flux field phi

pressureControl
    pMax 49031.144
    pMin 2448.9304

Creating turbulence model

Selecting turbulence model type RAS
Selecting RAS turbulence model SpalartAllmaras
ft2 term: inactive
RAS
{
    RASModel        SpalartAllmaras;
    turbulence      on;
    printCoeffs     on;
    sigmaNut        0.66666;
    kappa           0.41;
    Cb1             0.1355;
    Cb2             0.622;
    Cw2             0.3;
    Cw3             2;
    Cv1             7.1;
    Cs              0.3;
    ck              0.07;
    ft2             false;
    Ct3             1.2;
    Ct4             0.5;
}

Creating field dpdt

Creating field kinetic energy K

No MRF models present

wallShearStress wallShearStress write:
    writing field wallShearStress
    min/max(upperSurface) = (-56.907734 -1.1758694e-16 -51.821139), (-0.064914698 1.1893198e-16 1.4853373)
    min/max(lowerSurface) = (-46.077288 -1.2587212e-16 -9.4629615), (-0.49424293 1.223779e-16 25.118851)

Time = 0.05
Using LTS
Reading thermophysical properties

Selecting thermodynamics package 
{
    type            hePsiThermo;
    mixture         pureMixture;
    transport       const;
    thermo          hConst;
    equationOfState perfectGas;
    specie          specie;
    energy          sensibleInternalEnergy;
}

Reading field U

Reading/calculating face flux field phi

pressureControl
    pMax 49051.308
    pMin 2448.7743

Creating turbulence model

Selecting turbulence model type RAS
Selecting RAS turbulence model SpalartAllmaras
ft2 term: inactive
RAS
{
    RASModel        SpalartAllmaras;
    turbulence      on;
    printCoeffs     on;
    sigmaNut        0.66666;
    kappa           0.41;
    Cb1             0.1355;
    Cb2             0.622;
    Cw2             0.3;
    Cw3             2;
    Cv1             7.1;
    Cs              0.3;
    ck              0.07;
    ft2             false;
    Ct3             1.2;
    Ct4             0.5;
}

Creating field dpdt

Creating field kinetic energy K

No MRF models present

wallShearStress wallShearStress write:
    writing field wallShearStress
    min/max(upperSurface) = (-57.213047 -1.1700881e-16 -52.863409), (0.009777596 1.1838128e-16 1.4535963)
    min/max(lowerSurface) = (-45.464984 -1.2590856e-16 -10.647987), (-0.46347221 1.2250114e-16 24.335228)

Time = 0.06
Using LTS
Reading thermophysical properties

Selecting thermodynamics package 
{
    type            hePsiThermo;
    mixture         pureMixture;
    transport       const;
    thermo          hConst;
    equationOfState perfectGas;
    specie          specie;
    energy          sensibleInternalEnergy;
}

Reading field U

Reading/calculating face flux field phi

pressureControl
    pMax 49034.564
    pMin 2448.6192

Creating turbulence model

Selecting turbulence model type RAS
Selecting RAS turbulence model SpalartAllmaras
ft2 term: inactive
RAS
{
    RASModel        SpalartAllmaras;
    turbulence      on;
    printCoeffs     on;
    sigmaNut        0.66666;
    kappa           0.41;
    Cb1             0.1355;
    Cb2             0.622;
    Cw2             0.3;
    Cw3             2;
    Cv1             7.1;
    Cs              0.3;
    ck              0.07;
    ft2             false;
    Ct3             1.2;
    Ct4             0.5;
}

Creating field dpdt

Creating field kinetic energy K

No MRF models present

wallShearStress wallShearStress write:
    writing field wallShearStress
    min/max(upperSurface) = (-57.319794 -1.1651144e-16 -53.489624), (0.26026084 1.1720907e-16 1.4616242)
    min/max(lowerSurface) = (-45.096387 -1.2606769e-16 -11.380891), (-0.4408675 1.2271077e-16 23.86308)

Time = 0.07
Using LTS
Reading thermophysical properties

Selecting thermodynamics package 
{
    type            hePsiThermo;
    mixture         pureMixture;
    transport       const;
    thermo          hConst;
    equationOfState perfectGas;
    specie          specie;
    energy          sensibleInternalEnergy;
}

Reading field U

Reading/calculating face flux field phi

pressureControl
    pMax 49036.12
    pMin 2448.5559

Creating turbulence model

Selecting turbulence model type RAS
Selecting RAS turbulence model SpalartAllmaras
ft2 term: inactive
RAS
{
    RASModel        SpalartAllmaras;
    turbulence      on;
    printCoeffs     on;
    sigmaNut        0.66666;
    kappa           0.41;
    Cb1             0.1355;
    Cb2             0.622;
    Cw2             0.3;
    Cw3             2;
    Cv1             7.1;
    Cs              0.3;
    ck              0.07;
    ft2             false;
    Ct3             1.2;
    Ct4             0.5;
}

Creating field dpdt

Creating field kinetic energy K

No MRF models present

wallShearStress wallShearStress write:
    writing field wallShearStress
    min/max(upperSurface) = (-57.387167 -1.1512047e-16 -53.874468), (0.5560118 1.1633681e-16 1.5181698)
    min/max(lowerSurface) = (-44.870335 -1.2611723e-16 -11.846995), (-0.40321161 1.2278711e-16 23.587827)

Time = 0.08
Using LTS
Reading thermophysical properties

Selecting thermodynamics package 
{
    type            hePsiThermo;
    mixture         pureMixture;
    transport       const;
    thermo          hConst;
    equationOfState perfectGas;
    specie          specie;
    energy          sensibleInternalEnergy;
}

Reading field U

Reading/calculating face flux field phi

pressureControl
    pMax 49039.498
    pMin 2448.5196

Creating turbulence model

Selecting turbulence model type RAS
Selecting RAS turbulence model SpalartAllmaras
ft2 term: inactive
RAS
{
    RASModel        SpalartAllmaras;
    turbulence      on;
    printCoeffs     on;
    sigmaNut        0.66666;
    kappa           0.41;
    Cb1             0.1355;
    Cb2             0.622;
    Cw2             0.3;
    Cw3             2;
    Cv1             7.1;
    Cs              0.3;
    ck              0.07;
    ft2             false;
    Ct3             1.2;
    Ct4             0.5;
}

Creating field dpdt

Creating field kinetic energy K

No MRF models present

wallShearStress wallShearStress write:
    writing field wallShearStress
    min/max(upperSurface) = (-57.415732 -1.1365747e-16 -54.171286), (0.94676087 1.1511105e-16 1.5466717)
    min/max(lowerSurface) = (-44.717952 -1.2613224e-16 -12.21199), (-0.3718919 1.2282773e-16 23.373522)

Time = 0.09
Using LTS
Reading thermophysical properties

Selecting thermodynamics package 
{
    type            hePsiThermo;
    mixture         pureMixture;
    transport       const;
    thermo          hConst;
    equationOfState perfectGas;
    specie          specie;
    energy          sensibleInternalEnergy;
}

Reading field U

Reading/calculating face flux field phi

pressureControl
    pMax 49041.366
    pMin 2448.3722

Creating turbulence model

Selecting turbulence model type RAS
Selecting RAS turbulence model SpalartAllmaras
ft2 term: inactive
RAS
{
    RASModel        SpalartAllmaras;
    turbulence      on;
    printCoeffs     on;
    sigmaNut        0.66666;
    kappa           0.41;
    Cb1             0.1355;
    Cb2             0.622;
    Cw2             0.3;
    Cw3             2;
    Cv1             7.1;
    Cs              0.3;
    ck              0.07;
    ft2             false;
    Ct3             1.2;
    Ct4             0.5;
}

Creating field dpdt

Creating field kinetic energy K

No MRF models present

wallShearStress wallShearStress write:
    writing field wallShearStress
    min/max(upperSurface) = (-57.458699 -1.1264322e-16 -54.427052), (1.3201204 1.1435457e-16 1.556277)
    min/max(lowerSurface) = (-44.604745 -1.2605572e-16 -12.511631), (-0.34664863 1.2277543e-16 23.206859)

Time = 0.1
Using LTS
Reading thermophysical properties

Selecting thermodynamics package 
{
    type            hePsiThermo;
    mixture         pureMixture;
    transport       const;
    thermo          hConst;
    equationOfState perfectGas;
    specie          specie;
    energy          sensibleInternalEnergy;
}

Reading field U

Reading/calculating face flux field phi

pressureControl
    pMax 49042.554
    pMin 2448.306

Creating turbulence model

Selecting turbulence model type RAS
Selecting RAS turbulence model SpalartAllmaras
ft2 term: inactive
RAS
{
    RASModel        SpalartAllmaras;
    turbulence      on;
    printCoeffs     on;
    sigmaNut        0.66666;
    kappa           0.41;
    Cb1             0.1355;
    Cb2             0.622;
    Cw2             0.3;
    Cw3             2;
    Cv1             7.1;
    Cs              0.3;
    ck              0.07;
    ft2             false;
    Ct3             1.2;
    Ct4             0.5;
}

Creating field dpdt

Creating field kinetic energy K

No MRF models present

wallShearStress wallShearStress write:
    writing field wallShearStress
    min/max(upperSurface) = (-57.4788 -1.1221015e-16 -54.600149), (1.5676695 1.1288149e-16 1.5530142)
    min/max(lowerSurface) = (-44.520614 -1.2601173e-16 -12.734801), (-0.32742768 1.22746e-16 23.078515)

Time = 0.11
Using LTS
Reading thermophysical properties

Selecting thermodynamics package 
{
    type            hePsiThermo;
    mixture         pureMixture;
    transport       const;
    thermo          hConst;
    equationOfState perfectGas;
    specie          specie;
    energy          sensibleInternalEnergy;
}

Reading field U

Reading/calculating face flux field phi

pressureControl
    pMax 49044.234
    pMin 2448.2786

Creating turbulence model

Selecting turbulence model type RAS
Selecting RAS turbulence model SpalartAllmaras
ft2 term: inactive
RAS
{
    RASModel        SpalartAllmaras;
    turbulence      on;
    printCoeffs     on;
    sigmaNut        0.66666;
    kappa           0.41;
    Cb1             0.1355;
    Cb2             0.622;
    Cw2             0.3;
    Cw3             2;
    Cv1             7.1;
    Cs              0.3;
    ck              0.07;
    ft2             false;
    Ct3             1.2;
    Ct4             0.5;
}

Creating field dpdt

Creating field kinetic energy K

No MRF models present

wallShearStress wallShearStress write:
    writing field wallShearStress
    min/max(upperSurface) = (-57.503532 -1.1128096e-16 -54.732664), (1.7232518 1.1278409e-16 1.5473653)
    min/max(lowerSurface) = (-44.460716 -1.2600023e-16 -12.887814), (-0.3145547 1.2274251e-16 22.99624)

Time = 0.12
Using LTS
Reading thermophysical properties

Selecting thermodynamics package 
{
    type            hePsiThermo;
    mixture         pureMixture;
    transport       const;
    thermo          hConst;
    equationOfState perfectGas;
    specie          specie;
    energy          sensibleInternalEnergy;
}

Reading field U

Reading/calculating face flux field phi

pressureControl
    pMax 49046.216
    pMin 2448.2581

Creating turbulence model

Selecting turbulence model type RAS
Selecting RAS turbulence model SpalartAllmaras
ft2 term: inactive
RAS
{
    RASModel        SpalartAllmaras;
    turbulence      on;
    printCoeffs     on;
    sigmaNut        0.66666;
    kappa           0.41;
    Cb1             0.1355;
    Cb2             0.622;
    Cw2             0.3;
    Cw3             2;
    Cv1             7.1;
    Cs              0.3;
    ck              0.07;
    ft2             false;
    Ct3             1.2;
    Ct4             0.5;
}

Creating field dpdt

Creating field kinetic energy K

No MRF models present

wallShearStress wallShearStress write:
    writing field wallShearStress
    min/max(upperSurface) = (-57.524461 -1.1084246e-16 -54.822254), (1.8279479 1.1245936e-16 1.5432521)
    min/max(lowerSurface) = (-44.417295 -1.2601433e-16 -12.99798), (-0.30505934 1.2276558e-16 22.934802)

Time = 0.13
Using LTS
Reading thermophysical properties

Selecting thermodynamics package 
{
    type            hePsiThermo;
    mixture         pureMixture;
    transport       const;
    thermo          hConst;
    equationOfState perfectGas;
    specie          specie;
    energy          sensibleInternalEnergy;
}

Reading field U

Reading/calculating face flux field phi

pressureControl
    pMax 49048.216
    pMin 2448.2261

Creating turbulence model

Selecting turbulence model type RAS
Selecting RAS turbulence model SpalartAllmaras
ft2 term: inactive
RAS
{
    RASModel        SpalartAllmaras;
    turbulence      on;
    printCoeffs     on;
    sigmaNut        0.66666;
    kappa           0.41;
    Cb1             0.1355;
    Cb2             0.622;
    Cw2             0.3;
    Cw3             2;
    Cv1             7.1;
    Cs              0.3;
    ck              0.07;
    ft2             false;
    Ct3             1.2;
    Ct4             0.5;
}

Creating field dpdt

Creating field kinetic energy K

No MRF models present

wallShearStress wallShearStress write:
    writing field wallShearStress
    min/max(upperSurface) = (-57.536006 -1.1047057e-16 -54.89399), (1.9096344 1.1217824e-16 1.5420639)
    min/max(lowerSurface) = (-44.383532 -1.2600177e-16 -13.090449), (-0.29677185 1.2276166e-16 22.881706)

Time = 0.14
Using LTS
Reading thermophysical properties

Selecting thermodynamics package 
{
    type            hePsiThermo;
    mixture         pureMixture;
    transport       const;
    thermo          hConst;
    equationOfState perfectGas;
    specie          specie;
    energy          sensibleInternalEnergy;
}

Reading field U

Reading/calculating face flux field phi

pressureControl
    pMax 49051.234
    pMin 2448.1741

Creating turbulence model

Selecting turbulence model type RAS
Selecting RAS turbulence model SpalartAllmaras
ft2 term: inactive
RAS
{
    RASModel        SpalartAllmaras;
    turbulence      on;
    printCoeffs     on;
    sigmaNut        0.66666;
    kappa           0.41;
    Cb1             0.1355;
    Cb2             0.622;
    Cw2             0.3;
    Cw3             2;
    Cv1             7.1;
    Cs              0.3;
    ck              0.07;
    ft2             false;
    Ct3             1.2;
    Ct4             0.5;
}

Creating field dpdt

Creating field kinetic energy K

No MRF models present

wallShearStress wallShearStress write:
    writing field wallShearStress
    min/max(upperSurface) = (-57.541252 -1.1007762e-16 -54.951733), (1.9809904 1.1184956e-16 1.5405324)
    min/max(lowerSurface) = (-44.356782 -1.2674604e-16 -13.164145), (-0.28993173 1.2275623e-16 22.839669)

Time = 0.15
Using LTS
Reading thermophysical properties

Selecting thermodynamics package 
{
    type            hePsiThermo;
    mixture         pureMixture;
    transport       const;
    thermo          hConst;
    equationOfState perfectGas;
    specie          specie;
    energy          sensibleInternalEnergy;
}

Reading field U

Reading/calculating face flux field phi

pressureControl
    pMax 49054.828
    pMin 2448.095

Creating turbulence model

Selecting turbulence model type RAS
Selecting RAS turbulence model SpalartAllmaras
ft2 term: inactive
RAS
{
    RASModel        SpalartAllmaras;
    turbulence      on;
    printCoeffs     on;
    sigmaNut        0.66666;
    kappa           0.41;
    Cb1             0.1355;
    Cb2             0.622;
    Cw2             0.3;
    Cw3             2;
    Cv1             7.1;
    Cs              0.3;
    ck              0.07;
    ft2             false;
    Ct3             1.2;
    Ct4             0.5;
}

Creating field dpdt

Creating field kinetic energy K

No MRF models present

wallShearStress wallShearStress write:
    writing field wallShearStress
    min/max(upperSurface) = (-57.546707 -1.095852e-16 -54.98978), (2.0376313 1.1140787e-16 1.5383496)
    min/max(lowerSurface) = (-44.338046 -1.2672254e-16 -13.212788), (-0.28544001 1.2274302e-16 22.813132)

Time = 0.16
Using LTS
Reading thermophysical properties

Selecting thermodynamics package 
{
    type            hePsiThermo;
    mixture         pureMixture;
    transport       const;
    thermo          hConst;
    equationOfState perfectGas;
    specie          specie;
    energy          sensibleInternalEnergy;
}

Reading field U

Reading/calculating face flux field phi

pressureControl
    pMax 49058.682
    pMin 2447.9537

Creating turbulence model

Selecting turbulence model type RAS
Selecting RAS turbulence model SpalartAllmaras
ft2 term: inactive
RAS
{
    RASModel        SpalartAllmaras;
    turbulence      on;
    printCoeffs     on;
    sigmaNut        0.66666;
    kappa           0.41;
    Cb1             0.1355;
    Cb2             0.622;
    Cw2             0.3;
    Cw3             2;
    Cv1             7.1;
    Cs              0.3;
    ck              0.07;
    ft2             false;
    Ct3             1.2;
    Ct4             0.5;
}

Creating field dpdt

Creating field kinetic energy K

No MRF models present

wallShearStress wallShearStress write:
    writing field wallShearStress
    min/max(upperSurface) = (-57.549139 -1.0938967e-16 -55.018003), (2.0827513 1.1126087e-16 1.5355175)
    min/max(lowerSurface) = (-44.323265 -1.2670722e-16 -13.248971), (-0.28208688 1.2273066e-16 22.793016)

Time = 0.17
Using LTS
Reading thermophysical properties

Selecting thermodynamics package 
{
    type            hePsiThermo;
    mixture         pureMixture;
    transport       const;
    thermo          hConst;
    equationOfState perfectGas;
    specie          specie;
    energy          sensibleInternalEnergy;
}

Reading field U

Reading/calculating face flux field phi

pressureControl
    pMax 49063.118
    pMin 2447.7756

Creating turbulence model

Selecting turbulence model type RAS
Selecting RAS turbulence model SpalartAllmaras
ft2 term: inactive
RAS
{
    RASModel        SpalartAllmaras;
    turbulence      on;
    printCoeffs     on;
    sigmaNut        0.66666;
    kappa           0.41;
    Cb1             0.1355;
    Cb2             0.622;
    Cw2             0.3;
    Cw3             2;
    Cv1             7.1;
    Cs              0.3;
    ck              0.07;
    ft2             false;
    Ct3             1.2;
    Ct4             0.5;
}

Creating field dpdt

Creating field kinetic energy K

No MRF models present

wallShearStress wallShearStress write:
    writing field wallShearStress
    min/max(upperSurface) = (-57.548507 -1.0919762e-16 -55.038388), (2.1291265 1.1110745e-16 1.5314845)
    min/max(lowerSurface) = (-44.31243 -1.2670562e-16 -13.275635), (-0.27959342 1.2273212e-16 22.777849)

Time = 0.18
Using LTS
Reading thermophysical properties

Selecting thermodynamics package 
{
    type            hePsiThermo;
    mixture         pureMixture;
    transport       const;
    thermo          hConst;
    equationOfState perfectGas;
    specie          specie;
    energy          sensibleInternalEnergy;
}

Reading field U

Reading/calculating face flux field phi

pressureControl
    pMax 49069.508
    pMin 2447.5641

Creating turbulence model

Selecting turbulence model type RAS
Selecting RAS turbulence model SpalartAllmaras
ft2 term: inactive
RAS
{
    RASModel        SpalartAllmaras;
    turbulence      on;
    printCoeffs     on;
    sigmaNut        0.66666;
    kappa           0.41;
    Cb1             0.1355;
    Cb2             0.622;
    Cw2             0.3;
    Cw3             2;
    Cv1             7.1;
    Cs              0.3;
    ck              0.07;
    ft2             false;
    Ct3             1.2;
    Ct4             0.5;
}

Creating field dpdt

Creating field kinetic energy K

No MRF models present

wallShearStress wallShearStress write:
    writing field wallShearStress
    min/max(upperSurface) = (-57.551303 -1.0911222e-16 -55.055702), (2.1416649 1.1104368e-16 1.5275548)
    min/max(lowerSurface) = (-44.300435 -1.2669266e-16 -13.299169), (-0.27734173 1.2272241e-16 22.763305)

Time = 0.19
Using LTS
Reading thermophysical properties

Selecting thermodynamics package 
{
    type            hePsiThermo;
    mixture         pureMixture;
    transport       const;
    thermo          hConst;
    equationOfState perfectGas;
    specie          specie;
    energy          sensibleInternalEnergy;
}

Reading field U

Reading/calculating face flux field phi

pressureControl
    pMax 49079.636
    pMin 2447.3305

Creating turbulence model

Selecting turbulence model type RAS
Selecting RAS turbulence model SpalartAllmaras
ft2 term: inactive
RAS
{
    RASModel        SpalartAllmaras;
    turbulence      on;
    printCoeffs     on;
    sigmaNut        0.66666;
    kappa           0.41;
    Cb1             0.1355;
    Cb2             0.622;
    Cw2             0.3;
    Cw3             2;
    Cv1             7.1;
    Cs              0.3;
    ck              0.07;
    ft2             false;
    Ct3             1.2;
    Ct4             0.5;
}

Creating field dpdt

Creating field kinetic energy K

No MRF models present

wallShearStress wallShearStress write:
    writing field wallShearStress
    min/max(upperSurface) = (-57.554285 -1.0926386e-16 -55.078218), (2.1291921 1.1119825e-16 1.5258978)
    min/max(lowerSurface) = (-44.292477 -1.266938e-16 -13.323763), (-0.2751217 1.2272547e-16 22.750588)

Time = 0.2
Using LTS
Reading thermophysical properties

Selecting thermodynamics package 
{
    type            hePsiThermo;
    mixture         pureMixture;
    transport       const;
    thermo          hConst;
    equationOfState perfectGas;
    specie          specie;
    energy          sensibleInternalEnergy;
}

Reading field U

Reading/calculating face flux field phi

pressureControl
    pMax 49089.376
    pMin 2447.1092

Creating turbulence model

Selecting turbulence model type RAS
Selecting RAS turbulence model SpalartAllmaras
ft2 term: inactive
RAS
{
    RASModel        SpalartAllmaras;
    turbulence      on;
    printCoeffs     on;
    sigmaNut        0.66666;
    kappa           0.41;
    Cb1             0.1355;
    Cb2             0.622;
    Cw2             0.3;
    Cw3             2;
    Cv1             7.1;
    Cs              0.3;
    ck              0.07;
    ft2             false;
    Ct3             1.2;
    Ct4             0.5;
}

Creating field dpdt

Creating field kinetic energy K

No MRF models present

wallShearStress wallShearStress write:
    writing field wallShearStress
    min/max(upperSurface) = (-57.555796 -1.0949448e-16 -55.087798), (2.1155118 1.1142713e-16 1.5270118)
    min/max(lowerSurface) = (-44.287795 -1.2670627e-16 -13.338948), (-0.27363556 1.2273732e-16 22.740994)

Time = 0.21
Using LTS
Reading thermophysical properties

Selecting thermodynamics package 
{
    type            hePsiThermo;
    mixture         pureMixture;
    transport       const;
    thermo          hConst;
    equationOfState perfectGas;
    specie          specie;
    energy          sensibleInternalEnergy;
}

Reading field U

Reading/calculating face flux field phi

pressureControl
    pMax 49097.14
    pMin 2446.9444

Creating turbulence model

Selecting turbulence model type RAS
Selecting RAS turbulence model SpalartAllmaras
ft2 term: inactive
RAS
{
    RASModel        SpalartAllmaras;
    turbulence      on;
    printCoeffs     on;
    sigmaNut        0.66666;
    kappa           0.41;
    Cb1             0.1355;
    Cb2             0.622;
    Cw2             0.3;
    Cw3             2;
    Cv1             7.1;
    Cs              0.3;
    ck              0.07;
    ft2             false;
    Ct3             1.2;
    Ct4             0.5;
}

Creating field dpdt

Creating field kinetic energy K

No MRF models present

wallShearStress wallShearStress write:
    writing field wallShearStress
    min/max(upperSurface) = (-57.553067 -1.0960956e-16 -55.08737), (2.1006247 1.1154232e-16 1.5295421)
    min/max(lowerSurface) = (-44.279835 -1.2672036e-16 -13.343434), (-0.27308138 1.2275002e-16 22.735499)

Time = 0.22
Using LTS
Reading thermophysical properties

Selecting thermodynamics package 
{
    type            hePsiThermo;
    mixture         pureMixture;
    transport       const;
    thermo          hConst;
    equationOfState perfectGas;
    specie          specie;
    energy          sensibleInternalEnergy;
}

Reading field U

Reading/calculating face flux field phi

pressureControl
    pMax 49103.856
    pMin 2446.8464

Creating turbulence model

Selecting turbulence model type RAS
Selecting RAS turbulence model SpalartAllmaras
ft2 term: inactive
RAS
{
    RASModel        SpalartAllmaras;
    turbulence      on;
    printCoeffs     on;
    sigmaNut        0.66666;
    kappa           0.41;
    Cb1             0.1355;
    Cb2             0.622;
    Cw2             0.3;
    Cw3             2;
    Cv1             7.1;
    Cs              0.3;
    ck              0.07;
    ft2             false;
    Ct3             1.2;
    Ct4             0.5;
}

Creating field dpdt

Creating field kinetic energy K

No MRF models present

wallShearStress wallShearStress write:
    writing field wallShearStress
    min/max(upperSurface) = (-57.561564 -1.0962144e-16 -55.100324), (2.1106151 1.1155742e-16 1.531653)
    min/max(lowerSurface) = (-44.27857 -1.2673867e-16 -13.353174), (-0.27231653 1.2276414e-16 22.732709)

Time = 0.23
Using LTS
Reading thermophysical properties

Selecting thermodynamics package 
{
    type            hePsiThermo;
    mixture         pureMixture;
    transport       const;
    thermo          hConst;
    equationOfState perfectGas;
    specie          specie;
    energy          sensibleInternalEnergy;
}

Reading field U

Reading/calculating face flux field phi

pressureControl
    pMax 49108.642
    pMin 2446.7865

Creating turbulence model

Selecting turbulence model type RAS
Selecting RAS turbulence model SpalartAllmaras
ft2 term: inactive
RAS
{
    RASModel        SpalartAllmaras;
    turbulence      on;
    printCoeffs     on;
    sigmaNut        0.66666;
    kappa           0.41;
    Cb1             0.1355;
    Cb2             0.622;
    Cw2             0.3;
    Cw3             2;
    Cv1             7.1;
    Cs              0.3;
    ck              0.07;
    ft2             false;
    Ct3             1.2;
    Ct4             0.5;
}

Creating field dpdt

Creating field kinetic energy K

No MRF models present

wallShearStress wallShearStress write:
    writing field wallShearStress
    min/max(upperSurface) = (-57.55138 -1.095011e-16 -55.105903), (2.1211515 1.114372e-16 1.5331338)
    min/max(lowerSurface) = (-44.267881 -1.2673406e-16 -13.37011), (-0.27055714 1.2276833e-16 22.719845)

Time = 0.24
Using LTS
Reading thermophysical properties

Selecting thermodynamics package 
{
    type            hePsiThermo;
    mixture         pureMixture;
    transport       const;
    thermo          hConst;
    equationOfState perfectGas;
    specie          specie;
    energy          sensibleInternalEnergy;
}

Reading field U

Reading/calculating face flux field phi

pressureControl
    pMax 49111.994
    pMin 2446.7553

Creating turbulence model

Selecting turbulence model type RAS
Selecting RAS turbulence model SpalartAllmaras
ft2 term: inactive
RAS
{
    RASModel        SpalartAllmaras;
    turbulence      on;
    printCoeffs     on;
    sigmaNut        0.66666;
    kappa           0.41;
    Cb1             0.1355;
    Cb2             0.622;
    Cw2             0.3;
    Cw3             2;
    Cv1             7.1;
    Cs              0.3;
    ck              0.07;
    ft2             false;
    Ct3             1.2;
    Ct4             0.5;
}

Creating field dpdt

Creating field kinetic energy K

No MRF models present

wallShearStress wallShearStress write:
    writing field wallShearStress
    min/max(upperSurface) = (-57.563225 -1.0937403e-16 -55.117931), (2.1501624 1.1132053e-16 1.5324874)
    min/max(lowerSurface) = (-44.267083 -1.2673912e-16 -13.376802), (-0.27008071 1.2277229e-16 22.718752)

Time = 0.25
Using LTS
Reading thermophysical properties

Selecting thermodynamics package 
{
    type            hePsiThermo;
    mixture         pureMixture;
    transport       const;
    thermo          hConst;
    equationOfState perfectGas;
    specie          specie;
    energy          sensibleInternalEnergy;
}

Reading field U

Reading/calculating face flux field phi

pressureControl
    pMax 49114.158
    pMin 2446.7596

Creating turbulence model

Selecting turbulence model type RAS
Selecting RAS turbulence model SpalartAllmaras
ft2 term: inactive
RAS
{
    RASModel        SpalartAllmaras;
    turbulence      on;
    printCoeffs     on;
    sigmaNut        0.66666;
    kappa           0.41;
    Cb1             0.1355;
    Cb2             0.622;
    Cw2             0.3;
    Cw3             2;
    Cv1             7.1;
    Cs              0.3;
    ck              0.07;
    ft2             false;
    Ct3             1.2;
    Ct4             0.5;
}

Creating field dpdt

Creating field kinetic energy K

No MRF models present

wallShearStress wallShearStress write:
    writing field wallShearStress
    min/max(upperSurface) = (-57.559981 -1.0895129e-16 -55.12967), (2.1915715 1.1094825e-16 1.5292053)
    min/max(lowerSurface) = (-44.263386 -1.267294e-16 -13.392958), (-0.26857685 1.2276955e-16 22.710382)

End

