/*---------------------------------------------------------------------------*\
| =========                 |                                                 |
| \\      /  F ield         | OpenFOAM: The Open Source CFD Toolbox           |
|  \\    /   O peration     | Version:  2306                                  |
|   \\  /    A nd           | Website:  www.openfoam.com                      |
|    \\/     M anipulation  |                                                 |
\*---------------------------------------------------------------------------*/
Build  : _fbf00d6b-20230626 OPENFOAM=2306 version=2306
Arch   : "LSB;label=32;scalar=64"
Exec   : rhoPimpleFoam -postProcess -func yPlus
Date   : Feb 04 2024
Time   : 13:48:20
Host   : 50b25bd51c2a
PID    : 319
I/O    : uncollated
Case   : /home/openfoam/RP3/Construction/transonic
nProcs : 1
trapFpe: Floating point exception trapping enabled (FOAM_SIGFPE).
fileModificationChecking : Monitoring run-time modified files using timeStampMaster (fileModificationSkew 5, maxFileModificationPolls 20)
allowSystemOperations : Allowing user-supplied system call operations

// * * * * * * * * * * * * * * * * * * * * * * * * * * * * * * * * * * * * * //
Create time

Create mesh for time = 0


PIMPLE: Operating solver in PISO mode

Time = 0
Using LTS
Reading thermophysical properties

Selecting thermodynamics package 
{
    type            hePsiThermo;
    mixture         pureMixture;
    transport       const;
    thermo          hConst;
    equationOfState perfectGas;
    specie          specie;
    energy          sensibleInternalEnergy;
}

Reading field U

Reading/calculating face flux field phi

pressureControl
    pMax 200000
    pMin 10000

Creating turbulence model

Selecting turbulence model type RAS
Selecting RAS turbulence model SpalartAllmaras
Selecting patchDistMethod meshWave
ft2 term: inactive
RAS
{
    RASModel        SpalartAllmaras;
    turbulence      on;
    printCoeffs     on;
    sigmaNut        0.66666;
    kappa           0.41;
    Cb1             0.1355;
    Cb2             0.622;
    Cw2             0.3;
    Cw3             2;
    Cv1             7.1;
    Cs              0.3;
    ck              0.07;
    ft2             false;
    Ct3             1.2;
    Ct4             0.5;
}

Creating field dpdt

Creating field kinetic energy K

No MRF models present

Creating finite volume options from "system/fvOptions"

Selecting finite volume options type limitTemperature
    Source: limitT
    - selecting all cells
    - selected 20000 cell(s) with volume 114.59934
yPlus yPlus write:
    writing field yPlus
    patch upper y+ : min = 63.151934, max = 73.412443, average = 69.997707
    patch lower y+ : min = 72.803105, max = 82.715547, average = 79.563715

Time = 0.001
Using LTS
Reading thermophysical properties

Selecting thermodynamics package 
{
    type            hePsiThermo;
    mixture         pureMixture;
    transport       const;
    thermo          hConst;
    equationOfState perfectGas;
    specie          specie;
    energy          sensibleInternalEnergy;
}

Reading field U

Reading/calculating face flux field phi

pressureControl
    pMax 200000
    pMin 10000

Creating turbulence model

Selecting turbulence model type RAS
Selecting RAS turbulence model SpalartAllmaras
ft2 term: inactive
RAS
{
    RASModel        SpalartAllmaras;
    turbulence      on;
    printCoeffs     on;
    sigmaNut        0.66666;
    kappa           0.41;
    Cb1             0.1355;
    Cb2             0.622;
    Cw2             0.3;
    Cw3             2;
    Cv1             7.1;
    Cs              0.3;
    ck              0.07;
    ft2             false;
    Ct3             1.2;
    Ct4             0.5;
}

Creating field dpdt

Creating field kinetic energy K

No MRF models present

yPlus yPlus write:
    writing field yPlus
    patch upper y+ : min = 40.356583, max = 69.770391, average = 55.316985
    patch lower y+ : min = 5.8410018, max = 65.457906, average = 59.642995

Time = 0.002
Using LTS
Reading thermophysical properties

Selecting thermodynamics package 
{
    type            hePsiThermo;
    mixture         pureMixture;
    transport       const;
    thermo          hConst;
    equationOfState perfectGas;
    specie          specie;
    energy          sensibleInternalEnergy;
}

Reading field U

Reading/calculating face flux field phi

pressureControl
    pMax 200000
    pMin 10000

Creating turbulence model

Selecting turbulence model type RAS
Selecting RAS turbulence model SpalartAllmaras
ft2 term: inactive
RAS
{
    RASModel        SpalartAllmaras;
    turbulence      on;
    printCoeffs     on;
    sigmaNut        0.66666;
    kappa           0.41;
    Cb1             0.1355;
    Cb2             0.622;
    Cw2             0.3;
    Cw3             2;
    Cv1             7.1;
    Cs              0.3;
    ck              0.07;
    ft2             false;
    Ct3             1.2;
    Ct4             0.5;
}

Creating field dpdt

Creating field kinetic energy K

No MRF models present

yPlus yPlus write:
    writing field yPlus
    patch upper y+ : min = 38.595877, max = 77.428094, average = 52.630891
    patch lower y+ : min = 7.7434331, max = 64.355437, average = 56.061733

Time = 0.003
Using LTS
Reading thermophysical properties

Selecting thermodynamics package 
{
    type            hePsiThermo;
    mixture         pureMixture;
    transport       const;
    thermo          hConst;
    equationOfState perfectGas;
    specie          specie;
    energy          sensibleInternalEnergy;
}

Reading field U

Reading/calculating face flux field phi

pressureControl
    pMax 200000
    pMin 10000

Creating turbulence model

Selecting turbulence model type RAS
Selecting RAS turbulence model SpalartAllmaras
ft2 term: inactive
RAS
{
    RASModel        SpalartAllmaras;
    turbulence      on;
    printCoeffs     on;
    sigmaNut        0.66666;
    kappa           0.41;
    Cb1             0.1355;
    Cb2             0.622;
    Cw2             0.3;
    Cw3             2;
    Cv1             7.1;
    Cs              0.3;
    ck              0.07;
    ft2             false;
    Ct3             1.2;
    Ct4             0.5;
}

Creating field dpdt

Creating field kinetic energy K

No MRF models present

yPlus yPlus write:
    writing field yPlus
    patch upper y+ : min = 32.56578, max = 79.906938, average = 50.9915
    patch lower y+ : min = 8.3025149, max = 65.34273, average = 53.804165

Time = 0.004
Using LTS
Reading thermophysical properties

Selecting thermodynamics package 
{
    type            hePsiThermo;
    mixture         pureMixture;
    transport       const;
    thermo          hConst;
    equationOfState perfectGas;
    specie          specie;
    energy          sensibleInternalEnergy;
}

Reading field U

Reading/calculating face flux field phi

pressureControl
    pMax 200000
    pMin 10000

Creating turbulence model

Selecting turbulence model type RAS
Selecting RAS turbulence model SpalartAllmaras
ft2 term: inactive
RAS
{
    RASModel        SpalartAllmaras;
    turbulence      on;
    printCoeffs     on;
    sigmaNut        0.66666;
    kappa           0.41;
    Cb1             0.1355;
    Cb2             0.622;
    Cw2             0.3;
    Cw3             2;
    Cv1             7.1;
    Cs              0.3;
    ck              0.07;
    ft2             false;
    Ct3             1.2;
    Ct4             0.5;
}

Creating field dpdt

Creating field kinetic energy K

No MRF models present

yPlus yPlus write:
    writing field yPlus
    patch upper y+ : min = 27.458588, max = 80.790141, average = 50.075081
    patch lower y+ : min = 8.4819627, max = 66.802353, average = 52.564674

Time = 0.005
Using LTS
Reading thermophysical properties

Selecting thermodynamics package 
{
    type            hePsiThermo;
    mixture         pureMixture;
    transport       const;
    thermo          hConst;
    equationOfState perfectGas;
    specie          specie;
    energy          sensibleInternalEnergy;
}

Reading field U

Reading/calculating face flux field phi

pressureControl
    pMax 200000.12
    pMin 9999.9998

Creating turbulence model

Selecting turbulence model type RAS
Selecting RAS turbulence model SpalartAllmaras
ft2 term: inactive
RAS
{
    RASModel        SpalartAllmaras;
    turbulence      on;
    printCoeffs     on;
    sigmaNut        0.66666;
    kappa           0.41;
    Cb1             0.1355;
    Cb2             0.622;
    Cw2             0.3;
    Cw3             2;
    Cv1             7.1;
    Cs              0.3;
    ck              0.07;
    ft2             false;
    Ct3             1.2;
    Ct4             0.5;
}

Creating field dpdt

Creating field kinetic energy K

No MRF models present

yPlus yPlus write:
    writing field yPlus
    patch upper y+ : min = 21.364711, max = 81.779815, average = 49.832095
    patch lower y+ : min = 5.8141655, max = 68.909763, average = 51.776085

Time = 0.006
Using LTS
Reading thermophysical properties

Selecting thermodynamics package 
{
    type            hePsiThermo;
    mixture         pureMixture;
    transport       const;
    thermo          hConst;
    equationOfState perfectGas;
    specie          specie;
    energy          sensibleInternalEnergy;
}

Reading field U

Reading/calculating face flux field phi

pressureControl
    pMax 200000.76
    pMin 9999.9982

Creating turbulence model

Selecting turbulence model type RAS
Selecting RAS turbulence model SpalartAllmaras
ft2 term: inactive
RAS
{
    RASModel        SpalartAllmaras;
    turbulence      on;
    printCoeffs     on;
    sigmaNut        0.66666;
    kappa           0.41;
    Cb1             0.1355;
    Cb2             0.622;
    Cw2             0.3;
    Cw3             2;
    Cv1             7.1;
    Cs              0.3;
    ck              0.07;
    ft2             false;
    Ct3             1.2;
    Ct4             0.5;
}

Creating field dpdt

Creating field kinetic energy K

No MRF models present

yPlus yPlus write:
    writing field yPlus
    patch upper y+ : min = 17.402347, max = 82.875123, average = 50.004025
    patch lower y+ : min = 4.0466247, max = 70.976273, average = 51.364628

Time = 0.007
Using LTS
Reading thermophysical properties

Selecting thermodynamics package 
{
    type            hePsiThermo;
    mixture         pureMixture;
    transport       const;
    thermo          hConst;
    equationOfState perfectGas;
    specie          specie;
    energy          sensibleInternalEnergy;
}

Reading field U

Reading/calculating face flux field phi

pressureControl
    pMax 200002.56
    pMin 9999.9898

Creating turbulence model

Selecting turbulence model type RAS
Selecting RAS turbulence model SpalartAllmaras
ft2 term: inactive
RAS
{
    RASModel        SpalartAllmaras;
    turbulence      on;
    printCoeffs     on;
    sigmaNut        0.66666;
    kappa           0.41;
    Cb1             0.1355;
    Cb2             0.622;
    Cw2             0.3;
    Cw3             2;
    Cv1             7.1;
    Cs              0.3;
    ck              0.07;
    ft2             false;
    Ct3             1.2;
    Ct4             0.5;
}

Creating field dpdt

Creating field kinetic energy K

No MRF models present

yPlus yPlus write:
    writing field yPlus
    patch upper y+ : min = 15.961426, max = 83.77052, average = 50.246569
    patch lower y+ : min = 6.1110561, max = 72.772086, average = 51.13404

Time = 0.008
Using LTS
Reading thermophysical properties

Selecting thermodynamics package 
{
    type            hePsiThermo;
    mixture         pureMixture;
    transport       const;
    thermo          hConst;
    equationOfState perfectGas;
    specie          specie;
    energy          sensibleInternalEnergy;
}

Reading field U

Reading/calculating face flux field phi

pressureControl
    pMax 200005.74
    pMin 9999.9623

Creating turbulence model

Selecting turbulence model type RAS
Selecting RAS turbulence model SpalartAllmaras
ft2 term: inactive
RAS
{
    RASModel        SpalartAllmaras;
    turbulence      on;
    printCoeffs     on;
    sigmaNut        0.66666;
    kappa           0.41;
    Cb1             0.1355;
    Cb2             0.622;
    Cw2             0.3;
    Cw3             2;
    Cv1             7.1;
    Cs              0.3;
    ck              0.07;
    ft2             false;
    Ct3             1.2;
    Ct4             0.5;
}

Creating field dpdt

Creating field kinetic energy K

No MRF models present

yPlus yPlus write:
    writing field yPlus
    patch upper y+ : min = 15.933986, max = 84.576703, average = 50.463616
    patch lower y+ : min = 8.1105689, max = 74.38656, average = 50.945521

Time = 0.009
Using LTS
Reading thermophysical properties

Selecting thermodynamics package 
{
    type            hePsiThermo;
    mixture         pureMixture;
    transport       const;
    thermo          hConst;
    equationOfState perfectGas;
    specie          specie;
    energy          sensibleInternalEnergy;
}

Reading field U

Reading/calculating face flux field phi

pressureControl
    pMax 200010.1
    pMin 9998.1065

Creating turbulence model

Selecting turbulence model type RAS
Selecting RAS turbulence model SpalartAllmaras
ft2 term: inactive
RAS
{
    RASModel        SpalartAllmaras;
    turbulence      on;
    printCoeffs     on;
    sigmaNut        0.66666;
    kappa           0.41;
    Cb1             0.1355;
    Cb2             0.622;
    Cw2             0.3;
    Cw3             2;
    Cv1             7.1;
    Cs              0.3;
    ck              0.07;
    ft2             false;
    Ct3             1.2;
    Ct4             0.5;
}

Creating field dpdt

Creating field kinetic energy K

No MRF models present

yPlus yPlus write:
    writing field yPlus
    patch upper y+ : min = 16.25218, max = 85.301632, average = 50.644915
    patch lower y+ : min = 7.621066, max = 75.828301, average = 50.775607

Time = 0.01
Using LTS
Reading thermophysical properties

Selecting thermodynamics package 
{
    type            hePsiThermo;
    mixture         pureMixture;
    transport       const;
    thermo          hConst;
    equationOfState perfectGas;
    specie          specie;
    energy          sensibleInternalEnergy;
}

Reading field U

Reading/calculating face flux field phi

pressureControl
    pMax 200064.24
    pMin 9989.7897

Creating turbulence model

Selecting turbulence model type RAS
Selecting RAS turbulence model SpalartAllmaras
ft2 term: inactive
RAS
{
    RASModel        SpalartAllmaras;
    turbulence      on;
    printCoeffs     on;
    sigmaNut        0.66666;
    kappa           0.41;
    Cb1             0.1355;
    Cb2             0.622;
    Cw2             0.3;
    Cw3             2;
    Cv1             7.1;
    Cs              0.3;
    ck              0.07;
    ft2             false;
    Ct3             1.2;
    Ct4             0.5;
}

Creating field dpdt

Creating field kinetic energy K

No MRF models present

yPlus yPlus write:
    writing field yPlus
    patch upper y+ : min = 16.46236, max = 85.910223, average = 50.78952
    patch lower y+ : min = 5.9356029, max = 77.092, average = 50.617616

Time = 0.011
Using LTS
Reading thermophysical properties

Selecting thermodynamics package 
{
    type            hePsiThermo;
    mixture         pureMixture;
    transport       const;
    thermo          hConst;
    equationOfState perfectGas;
    specie          specie;
    energy          sensibleInternalEnergy;
}

Reading field U

Reading/calculating face flux field phi

pressureControl
    pMax 200098.16
    pMin 9982.9211

Creating turbulence model

Selecting turbulence model type RAS
Selecting RAS turbulence model SpalartAllmaras
ft2 term: inactive
RAS
{
    RASModel        SpalartAllmaras;
    turbulence      on;
    printCoeffs     on;
    sigmaNut        0.66666;
    kappa           0.41;
    Cb1             0.1355;
    Cb2             0.622;
    Cw2             0.3;
    Cw3             2;
    Cv1             7.1;
    Cs              0.3;
    ck              0.07;
    ft2             false;
    Ct3             1.2;
    Ct4             0.5;
}

Creating field dpdt

Creating field kinetic energy K

No MRF models present

yPlus yPlus write:
    writing field yPlus
    patch upper y+ : min = 16.53132, max = 86.449031, average = 50.924002
    patch lower y+ : min = 4.325365, max = 78.190526, average = 50.47222

Time = 0.012
Using LTS
Reading thermophysical properties

Selecting thermodynamics package 
{
    type            hePsiThermo;
    mixture         pureMixture;
    transport       const;
    thermo          hConst;
    equationOfState perfectGas;
    specie          specie;
    energy          sensibleInternalEnergy;
}

Reading field U

Reading/calculating face flux field phi

pressureControl
    pMax 200062.48
    pMin 9989.6274

Creating turbulence model

Selecting turbulence model type RAS
Selecting RAS turbulence model SpalartAllmaras
ft2 term: inactive
RAS
{
    RASModel        SpalartAllmaras;
    turbulence      on;
    printCoeffs     on;
    sigmaNut        0.66666;
    kappa           0.41;
    Cb1             0.1355;
    Cb2             0.622;
    Cw2             0.3;
    Cw3             2;
    Cv1             7.1;
    Cs              0.3;
    ck              0.07;
    ft2             false;
    Ct3             1.2;
    Ct4             0.5;
}

Creating field dpdt

Creating field kinetic energy K

No MRF models present

yPlus yPlus write:
    writing field yPlus
    patch upper y+ : min = 16.503533, max = 87.027927, average = 51.034824
    patch lower y+ : min = 3.7749619, max = 79.325655, average = 50.362647

Time = 0.013
Using LTS
Reading thermophysical properties

Selecting thermodynamics package 
{
    type            hePsiThermo;
    mixture         pureMixture;
    transport       const;
    thermo          hConst;
    equationOfState perfectGas;
    specie          specie;
    energy          sensibleInternalEnergy;
}

Reading field U

Reading/calculating face flux field phi

pressureControl
    pMax 200048.96
    pMin 9991.3388

Creating turbulence model

Selecting turbulence model type RAS
Selecting RAS turbulence model SpalartAllmaras
ft2 term: inactive
RAS
{
    RASModel        SpalartAllmaras;
    turbulence      on;
    printCoeffs     on;
    sigmaNut        0.66666;
    kappa           0.41;
    Cb1             0.1355;
    Cb2             0.622;
    Cw2             0.3;
    Cw3             2;
    Cv1             7.1;
    Cs              0.3;
    ck              0.07;
    ft2             false;
    Ct3             1.2;
    Ct4             0.5;
}

Creating field dpdt

Creating field kinetic energy K

No MRF models present

yPlus yPlus write:
    writing field yPlus
    patch upper y+ : min = 16.568036, max = 87.510726, average = 51.09585
    patch lower y+ : min = 5.0073932, max = 80.33484, average = 50.252006

Time = 0.014
Using LTS
Reading thermophysical properties

Selecting thermodynamics package 
{
    type            hePsiThermo;
    mixture         pureMixture;
    transport       const;
    thermo          hConst;
    equationOfState perfectGas;
    specie          specie;
    energy          sensibleInternalEnergy;
}

Reading field U

Reading/calculating face flux field phi

pressureControl
    pMax 200053.44
    pMin 9993.9881

Creating turbulence model

Selecting turbulence model type RAS
Selecting RAS turbulence model SpalartAllmaras
ft2 term: inactive
RAS
{
    RASModel        SpalartAllmaras;
    turbulence      on;
    printCoeffs     on;
    sigmaNut        0.66666;
    kappa           0.41;
    Cb1             0.1355;
    Cb2             0.622;
    Cw2             0.3;
    Cw3             2;
    Cv1             7.1;
    Cs              0.3;
    ck              0.07;
    ft2             false;
    Ct3             1.2;
    Ct4             0.5;
}

Creating field dpdt

Creating field kinetic energy K

No MRF models present

yPlus yPlus write:
    writing field yPlus
    patch upper y+ : min = 16.588772, max = 87.927635, average = 51.182835
    patch lower y+ : min = 6.1748445, max = 81.187007, average = 50.159215

Time = 0.015
Using LTS
Reading thermophysical properties

Selecting thermodynamics package 
{
    type            hePsiThermo;
    mixture         pureMixture;
    transport       const;
    thermo          hConst;
    equationOfState perfectGas;
    specie          specie;
    energy          sensibleInternalEnergy;
}

Reading field U

Reading/calculating face flux field phi

pressureControl
    pMax 200066.1
    pMin 9995.5943

Creating turbulence model

Selecting turbulence model type RAS
Selecting RAS turbulence model SpalartAllmaras
ft2 term: inactive
RAS
{
    RASModel        SpalartAllmaras;
    turbulence      on;
    printCoeffs     on;
    sigmaNut        0.66666;
    kappa           0.41;
    Cb1             0.1355;
    Cb2             0.622;
    Cw2             0.3;
    Cw3             2;
    Cv1             7.1;
    Cs              0.3;
    ck              0.07;
    ft2             false;
    Ct3             1.2;
    Ct4             0.5;
}

Creating field dpdt

Creating field kinetic energy K

No MRF models present

yPlus yPlus write:
    writing field yPlus
    patch upper y+ : min = 16.582095, max = 88.365076, average = 51.237434
    patch lower y+ : min = 7.305344, max = 82.071421, average = 50.074731

Time = 0.016
Using LTS
Reading thermophysical properties

Selecting thermodynamics package 
{
    type            hePsiThermo;
    mixture         pureMixture;
    transport       const;
    thermo          hConst;
    equationOfState perfectGas;
    specie          specie;
    energy          sensibleInternalEnergy;
}

Reading field U

Reading/calculating face flux field phi

pressureControl
    pMax 200078.74
    pMin 9995.4505

Creating turbulence model

Selecting turbulence model type RAS
Selecting RAS turbulence model SpalartAllmaras
ft2 term: inactive
RAS
{
    RASModel        SpalartAllmaras;
    turbulence      on;
    printCoeffs     on;
    sigmaNut        0.66666;
    kappa           0.41;
    Cb1             0.1355;
    Cb2             0.622;
    Cw2             0.3;
    Cw3             2;
    Cv1             7.1;
    Cs              0.3;
    ck              0.07;
    ft2             false;
    Ct3             1.2;
    Ct4             0.5;
}

Creating field dpdt

Creating field kinetic energy K

No MRF models present

yPlus yPlus write:
    writing field yPlus
    patch upper y+ : min = 16.573707, max = 88.726838, average = 51.301141
    patch lower y+ : min = 8.2444253, max = 82.835583, average = 49.993388

Time = 0.017
Using LTS
Reading thermophysical properties

Selecting thermodynamics package 
{
    type            hePsiThermo;
    mixture         pureMixture;
    transport       const;
    thermo          hConst;
    equationOfState perfectGas;
    specie          specie;
    energy          sensibleInternalEnergy;
}

Reading field U

Reading/calculating face flux field phi

pressureControl
    pMax 200090.74
    pMin 9996.6116

Creating turbulence model

Selecting turbulence model type RAS
Selecting RAS turbulence model SpalartAllmaras
ft2 term: inactive
RAS
{
    RASModel        SpalartAllmaras;
    turbulence      on;
    printCoeffs     on;
    sigmaNut        0.66666;
    kappa           0.41;
    Cb1             0.1355;
    Cb2             0.622;
    Cw2             0.3;
    Cw3             2;
    Cv1             7.1;
    Cs              0.3;
    ck              0.07;
    ft2             false;
    Ct3             1.2;
    Ct4             0.5;
}

Creating field dpdt

Creating field kinetic energy K

No MRF models present

yPlus yPlus write:
    writing field yPlus
    patch upper y+ : min = 16.545497, max = 89.095093, average = 51.358214
    patch lower y+ : min = 7.3141642, max = 83.57838, average = 49.924284

Time = 0.018
Using LTS
Reading thermophysical properties

Selecting thermodynamics package 
{
    type            hePsiThermo;
    mixture         pureMixture;
    transport       const;
    thermo          hConst;
    equationOfState perfectGas;
    specie          specie;
    energy          sensibleInternalEnergy;
}

Reading field U

Reading/calculating face flux field phi

pressureControl
    pMax 200101.36
    pMin 9996.2626

Creating turbulence model

Selecting turbulence model type RAS
Selecting RAS turbulence model SpalartAllmaras
ft2 term: inactive
RAS
{
    RASModel        SpalartAllmaras;
    turbulence      on;
    printCoeffs     on;
    sigmaNut        0.66666;
    kappa           0.41;
    Cb1             0.1355;
    Cb2             0.622;
    Cw2             0.3;
    Cw3             2;
    Cv1             7.1;
    Cs              0.3;
    ck              0.07;
    ft2             false;
    Ct3             1.2;
    Ct4             0.5;
}

Creating field dpdt

Creating field kinetic energy K

No MRF models present

yPlus yPlus write:
    writing field yPlus
    patch upper y+ : min = 16.550951, max = 89.422828, average = 51.402801
    patch lower y+ : min = 6.4296061, max = 84.226884, average = 49.848973

Time = 0.019
Using LTS
Reading thermophysical properties

Selecting thermodynamics package 
{
    type            hePsiThermo;
    mixture         pureMixture;
    transport       const;
    thermo          hConst;
    equationOfState perfectGas;
    specie          specie;
    energy          sensibleInternalEnergy;
}

Reading field U

Reading/calculating face flux field phi

pressureControl
    pMax 200110.54
    pMin 9995.946

Creating turbulence model

Selecting turbulence model type RAS
Selecting RAS turbulence model SpalartAllmaras
ft2 term: inactive
RAS
{
    RASModel        SpalartAllmaras;
    turbulence      on;
    printCoeffs     on;
    sigmaNut        0.66666;
    kappa           0.41;
    Cb1             0.1355;
    Cb2             0.622;
    Cw2             0.3;
    Cw3             2;
    Cv1             7.1;
    Cs              0.3;
    ck              0.07;
    ft2             false;
    Ct3             1.2;
    Ct4             0.5;
}

Creating field dpdt

Creating field kinetic energy K

No MRF models present

yPlus yPlus write:
    writing field yPlus
    patch upper y+ : min = 16.519136, max = 89.771595, average = 51.44514
    patch lower y+ : min = 5.5489072, max = 84.843542, average = 49.785928

Time = 0.02
Using LTS
Reading thermophysical properties

Selecting thermodynamics package 
{
    type            hePsiThermo;
    mixture         pureMixture;
    transport       const;
    thermo          hConst;
    equationOfState perfectGas;
    specie          specie;
    energy          sensibleInternalEnergy;
}

Reading field U

Reading/calculating face flux field phi

pressureControl
    pMax 200118.62
    pMin 9995.6538

Creating turbulence model

Selecting turbulence model type RAS
Selecting RAS turbulence model SpalartAllmaras
ft2 term: inactive
RAS
{
    RASModel        SpalartAllmaras;
    turbulence      on;
    printCoeffs     on;
    sigmaNut        0.66666;
    kappa           0.41;
    Cb1             0.1355;
    Cb2             0.622;
    Cw2             0.3;
    Cw3             2;
    Cv1             7.1;
    Cs              0.3;
    ck              0.07;
    ft2             false;
    Ct3             1.2;
    Ct4             0.5;
}

Creating field dpdt

Creating field kinetic energy K

No MRF models present

yPlus yPlus write:
    writing field yPlus
    patch upper y+ : min = 16.494583, max = 90.099708, average = 51.479293
    patch lower y+ : min = 4.6539591, max = 85.429894, average = 49.724148

End

